Version 4
SHEET 1 3300 912
WIRE 416 -240 288 -240
WIRE 416 -224 416 -240
WIRE 416 -96 416 -144
WIRE 288 -64 288 -240
WIRE 288 64 288 16
WIRE 464 64 288 64
WIRE 640 64 544 64
WIRE 768 64 640 64
WIRE 976 64 944 64
WIRE 1104 64 1056 64
WIRE 1152 64 1104 64
WIRE 1280 64 1232 64
WIRE 1360 64 1280 64
WIRE 832 96 832 64
WIRE 1360 112 1360 64
WIRE 288 128 288 64
WIRE 640 144 640 64
WIRE 944 144 944 64
WIRE 1104 144 1104 64
WIRE 1280 144 1280 64
WIRE 640 160 640 144
WIRE 128 208 -816 208
WIRE 192 208 128 208
WIRE 240 208 192 208
WIRE 1360 208 1360 192
WIRE 128 240 128 208
WIRE 288 256 288 224
WIRE -816 320 -816 208
WIRE -816 448 -816 400
FLAG 288 256 0
FLAG 416 -96 0
FLAG -816 448 0
FLAG 288 -240 VIN
FLAG 192 208 VGS
FLAG 640 208 0
FLAG 944 208 0
FLAG 1104 208 0
FLAG 1280 208 0
FLAG 1360 208 0
FLAG 832 176 0
FLAG 128 320 0
SYMBOL voltage -816 304 R0
WINDOW 123 0 0 Left 0
WINDOW 39 0 0 Left 0
WINDOW 3 -187 212 Left 2
SYMATTR Value PULSE(0 11 0 1n 1n {0.5*PERIOD} {PERIOD})
SYMATTR InstName V1
SYMBOL voltage 416 -240 R0
WINDOW 123 0 0 Left 0
WINDOW 39 0 0 Left 0
SYMATTR InstName V2
SYMATTR Value 25
SYMBOL ind 560 48 R90
WINDOW 0 5 56 VBottom 2
WINDOW 3 32 56 VTop 2
SYMATTR InstName L1
SYMATTR Value 120nH
SYMBOL cap 656 208 R180
WINDOW 0 24 56 Left 2
WINDOW 3 24 8 Left 2
SYMATTR InstName C3
SYMATTR Value 200pF
SYMBOL ind 272 -80 R0
SYMATTR InstName L2
SYMATTR Value 2.2µH
SYMBOL cap 768 80 R270
WINDOW 0 32 32 VTop 2
WINDOW 3 0 32 VBottom 2
SYMATTR InstName C4
SYMATTR Value 10nF
SYMBOL cap 960 208 R180
WINDOW 0 24 56 Left 2
WINDOW 3 24 8 Left 2
SYMATTR InstName C1
SYMATTR Value 120p
SYMBOL cap 1120 208 R180
WINDOW 0 24 56 Left 2
WINDOW 3 24 8 Left 2
SYMATTR InstName C5
SYMATTR Value 200pF
SYMBOL cap 1296 208 R180
WINDOW 0 24 56 Left 2
WINDOW 3 24 8 Left 2
SYMATTR InstName C6
SYMATTR Value 120p
SYMBOL ind 1072 48 R90
WINDOW 0 5 56 VBottom 2
WINDOW 3 32 56 VTop 2
SYMATTR InstName L3
SYMATTR Value 360n
SYMBOL ind 1248 48 R90
WINDOW 0 5 56 VBottom 2
WINDOW 3 32 56 VTop 2
SYMATTR InstName L4
SYMATTR Value 360n
SYMBOL res 816 80 R0
SYMATTR InstName R4
SYMATTR Value 50
SYMBOL res 1344 96 R0
SYMATTR InstName R2
SYMATTR Value 50
SYMBOL nmos 240 128 R0
SYMATTR InstName M1
SYMATTR Value IRF510
SYMBOL res 144 336 R180
WINDOW 0 36 76 Left 2
WINDOW 3 36 40 Left 2
SYMATTR InstName R3
SYMATTR Value 100k
TEXT -1336 392 Left 2 !.param FREQ=28.200E6\n.param PERIOD 1/{FREQ}
TEXT -1328 456 Left 2 !.tran 0 {1000*PERIOD} {996*PERIOD}
TEXT -848 -632 Left 2 !.meas Pin AVG -V(vin)*I(V2)\n.meas Vmax MAX V(Vds)\n.meas Pout AVG V(Vout)*I(R2)\n.meas Ploss AVG V(Vds)*Id(M4)+V(Vgs)*Ig(M4)
TEXT -208 -608 Left 2 !.param Rl 100\n.param Cl 391p\n.param Ll 234n
