Version 4
SHEET 1 3300 912
WIRE -496 -160 -544 -160
WIRE -544 -144 -544 -160
WIRE -496 -144 -496 -160
WIRE -416 -96 -432 -96
WIRE 240 -96 -336 -96
WIRE -496 16 -496 -48
WIRE -384 16 -496 16
WIRE -496 64 -496 16
WIRE -752 112 -848 112
WIRE -688 112 -752 112
WIRE -592 112 -608 112
WIRE -576 112 -592 112
WIRE -384 112 -384 96
WIRE -384 112 -480 112
WIRE 352 112 -384 112
WIRE 352 128 352 112
WIRE 240 208 240 -96
WIRE 240 208 -816 208
WIRE 352 256 352 208
WIRE -816 320 -816 208
WIRE -816 448 -816 400
FLAG -816 448 0
FLAG 352 256 0
FLAG -544 -144 0
FLAG -752 48 0
FLAG -848 32 0
FLAG -592 48 0
SYMBOL voltage -816 304 R0
WINDOW 123 0 0 Left 0
WINDOW 39 0 0 Left 0
WINDOW 3 -187 212 Left 2
SYMATTR Value PULSE(0 3.3 0 0.5n 0.5n {0.5*PERIOD} {PERIOD})
SYMATTR InstName V1
SYMBOL npn -432 -48 R180
SYMATTR InstName Q1
SYMATTR Value 2n3904-OnSemi
SYMBOL res -320 -112 R90
WINDOW 0 0 56 VBottom 2
WINDOW 3 32 56 VTop 2
SYMATTR InstName R1
SYMATTR Value 1k
SYMBOL voltage 352 112 R0
WINDOW 123 0 0 Left 0
WINDOW 39 0 0 Left 0
WINDOW 3 42 95 Left 2
SYMATTR Value 30
SYMATTR InstName V2
SYMBOL pmos -576 64 M90
SYMATTR InstName M1
SYMATTR Value IRF9540
SYMBOL res -400 0 R0
SYMATTR InstName R3
SYMATTR Value 1k
SYMBOL ind -592 96 R90
WINDOW 0 5 56 VBottom 2
WINDOW 3 32 56 VTop 2
SYMATTR InstName L1
SYMATTR Value 1mH
SYMBOL cap -768 48 R0
SYMATTR InstName C1
SYMATTR Value 360n
SYMBOL res -864 16 R0
SYMATTR InstName R2
SYMATTR Value 50
SYMBOL cap -608 48 R0
WINDOW 3 -49 11 Left 2
SYMATTR Value 360n
SYMATTR InstName C2
TEXT -1336 392 Left 2 !.param FREQ=8000\n.param PERIOD 1/{FREQ}
TEXT -1328 456 Left 2 !.tran 0 {1000*PERIOD} {996*PERIOD}
TEXT -408 656 Left 2 !.meas Pin AVG -V(vin)*I(V2)\n.meas Vmax MAX V(Vds)\n.meas Pout AVG V(Vout)*I(R2)\n.meas Ploss AVG V(Vds)*Id(M4)+V(Vgs)*Ig(M4)
TEXT -1136 696 Left 2 !.param Rl 100\n.param Cl 391p\n.param Ll 234n
