Version 4
SHEET 1 3300 912
WIRE 416 -240 288 -240
WIRE 416 -224 416 -240
WIRE 416 -128 416 -144
WIRE 288 -64 288 -240
WIRE 368 -64 336 -64
WIRE 288 64 288 16
WIRE 336 64 336 -64
WIRE 336 64 288 64
WIRE 368 64 368 16
WIRE 672 64 368 64
WIRE 800 64 736 64
WIRE 832 64 800 64
WIRE 928 64 912 64
WIRE 992 64 928 64
WIRE 1104 64 1072 64
WIRE 1184 64 1104 64
WIRE 288 128 288 64
WIRE 800 128 800 64
WIRE 928 128 928 64
WIRE 1104 128 1104 64
WIRE 608 144 320 144
WIRE 240 208 -816 208
WIRE 448 208 320 208
WIRE 1184 208 1184 64
WIRE 448 256 448 208
WIRE 608 256 608 144
WIRE -816 320 -816 208
WIRE 448 352 448 336
WIRE 608 352 608 336
WIRE 288 384 288 240
WIRE 1184 384 1184 288
WIRE -816 448 -816 400
FLAG 288 384 0
FLAG 416 -128 0
FLAG -816 448 0
FLAG 288 -240 VIN
FLAG 1184 384 0
FLAG 448 352 0
FLAG 608 352 0
FLAG 800 192 0
FLAG 928 192 0
FLAG 1104 192 0
SYMBOL voltage -816 304 R0
WINDOW 123 0 0 Left 0
WINDOW 39 0 0 Left 0
WINDOW 3 -187 212 Left 2
SYMATTR Value PULSE(0 15 0 0.5n 0.5n {0.5*PERIOD} {PERIOD})
SYMATTR InstName V1
SYMBOL voltage 416 -240 R0
WINDOW 123 0 0 Left 0
WINDOW 39 0 0 Left 0
SYMATTR InstName V2
SYMATTR Value 25
SYMBOL res 1168 192 R0
SYMATTR InstName R3
SYMATTR Value 50
SYMBOL cap 736 48 R90
WINDOW 0 0 32 VBottom 2
WINDOW 3 32 32 VTop 2
SYMATTR InstName C1
SYMATTR Value 100n
SYMBOL ind2 272 -80 R0
SYMATTR InstName L1
SYMATTR Value 3.3µ
SYMATTR Type ind
SYMBOL ind2 352 -80 R0
SYMATTR InstName L2
SYMATTR Value 3.3µ
SYMATTR Type ind
SYMBOL nmos_TO247_3L 240 128 R0
SYMATTR Value C2M0280120D
SYMATTR InstName U1
SYMBOL voltage 448 240 R0
WINDOW 123 0 0 Left 0
WINDOW 39 0 0 Left 0
SYMATTR InstName V3
SYMATTR Value 50
SYMBOL voltage 608 240 R0
WINDOW 123 0 0 Left 0
WINDOW 39 0 0 Left 0
SYMATTR InstName V4
SYMATTR Value 150
SYMBOL cap 784 128 R0
SYMATTR InstName C2
SYMATTR Value 240p
SYMBOL cap 912 128 R0
SYMATTR InstName C3
SYMATTR Value 430p
SYMBOL ind 928 48 R90
WINDOW 0 5 56 VBottom 2
WINDOW 3 32 56 VTop 2
SYMATTR InstName L3
SYMATTR Value 750nH
SYMBOL ind 1088 48 R90
WINDOW 0 5 56 VBottom 2
WINDOW 3 32 56 VTop 2
SYMATTR InstName L4
SYMATTR Value 750nH
SYMBOL cap 1088 128 R0
SYMATTR InstName C4
SYMATTR Value 240p
TEXT -1336 392 Left 2 !.param FREQ=14.074E6\n.param PERIOD 1/{FREQ}
TEXT -1328 456 Left 2 !.tran 0 {1000*PERIOD} {996*PERIOD}
TEXT -408 656 Left 2 !.meas Pin AVG -V(vin)*I(V2)\n.meas Vmax MAX V(Vds)\n.meas Pout AVG V(Vout)*I(R2)\n.meas Ploss AVG V(Vds)*Id(M4)+V(Vgs)*Ig(M4)
TEXT -1136 696 Left 2 !.param Rl 100\n.param Cl 391p\n.param Ll 234n
TEXT 440 0 Left 2 !K1 L1 L2 1
TEXT -512 64 Left 2 !.lib C2M0280120D.lib
TEXT 456 488 Left 2 ;https://www.youtube.com/watch?v=vFCtCPUcJMg
